Output_case1/output_voltage_566.csv
# Output_case1\output_voltage_566.csv run at 2000-01-01 09:26:00 EST on 963 nodes
node_name,voltA_mag,voltA_angle,voltB_mag,voltB_angle,voltC_mag,voltC_angle
SourceBus,6668.395609,0.000000,6668.395609,4.188790,6668.395609,2.094395
Bus1,251.804400,-0.527527,251.568018,3.660667,251.991261,1.569490
Bus2,251.761142,-0.527379,251.484018,3.660649,252.004006,1.569432
Bus3,251.756607,-0.527364,251.475212,3.660647,252.005342,1.569426
Bus4,251.752359,-0.527349,251.466962,3.660645,252.006594,1.569420
Bus5,251.748655,-0.527337,251.459769,3.660644,252.007686,1.569415
Bus6,251.742820,-0.527317,251.448438,3.660641,252.009405,1.569408
Bus7,251.345727,-0.525960,250.676814,3.660470,252.126530,1.568877
Bus8,251.327952,-0.525899,250.642255,3.660462,252.131777,1.568854
Bus9,251.313159,-0.525849,250.613490,3.660456,252.136145,1.568834
Bus10,251.300177,-0.525804,250.588247,3.660450,252.139978,1.568817
Bus11,251.290491,-0.525771,250.569411,3.660446,252.142838,1.568804
Bus12,251.281398,-0.525740,250.551728,3.660442,252.145524,1.568792
Bus13,251.275807,-0.525721,250.540855,3.660440,252.147175,1.568784
Bus14,251.261887,-0.525673,250.513786,3.660434,252.151285,1.568766
Bus15,251.149151,-0.525287,250.294502,3.660385,252.184588,1.568615
Bus16,251.149151,-0.525287,250.294502,3.660385,252.184588,1.568615
Bus17,251.012489,-0.524817,250.028584,3.660325,252.224980,1.568432
Bus18,251.149151,-0.525287,250.294502,3.660385,252.184588,1.568615
Bus19,251.003088,-0.524785,250.010287,3.660321,252.227760,1.568420
Bus20,251.149151,-0.525287,250.294502,3.660385,252.184588,1.568615
Bus21,250.992531,-0.524749,249.989742,3.660317,252.230881,1.568406
Bus22,251.149151,-0.525287,250.294502,3.660385,252.184588,1.568615
Bus23,250.975345,-0.524690,249.956290,3.660309,252.235963,1.568383
Bus24,251.149151,-0.525287,250.294502,3.660385,252.184588,1.568615
Bus25,250.944080,-0.524582,249.895433,3.660296,252.245209,1.568341
Bus26,251.149151,-0.525287,250.294502,3.660385,252.184588,1.568615
Bus27,250.921402,-0.524560,249.895503,3.660294,252.245457,1.568342
Bus28,250.578910,-0.523257,249.130216,3.660171,252.352344,1.567786
Bus29,251.149151,-0.525287,250.294502,3.660385,252.184588,1.568615
Bus30,250.916953,-0.524555,249.895516,3.660294,252.245505,1.568342
Bus31,250.919650,-0.524558,249.895508,3.660294,252.245476,1.568342
Bus32,250.481770,-0.522903,248.926503,3.660138,252.380878,1.567639
Bus33,251.149151,-0.525287,250.294502,3.660385,252.184588,1.568615
Bus34,250.906765,-0.524545,249.895548,3.660294,252.245617,1.568343
Bus35,250.919590,-0.524558,249.895508,3.660294,252.245476,1.568342
Bus36,250.483286,-0.522898,248.788611,3.660275,252.381289,1.567631
Bus37,250.143663,-0.521994,248.443652,3.659915,252.454319,1.567425
Bus38,251.149151,-0.525287,250.294502,3.660385,252.184588,1.568615
Bus39,250.919505,-0.524558,249.895509,3.660294,252.245477,1.568342
Bus40,250.483333,-0.522898,248.784359,3.660279,252.381301,1.567630
Bus41,250.483553,-0.522897,248.764314,3.660299,252.381361,1.567629
Bus42,249.909161,-0.521361,248.108593,3.659760,252.505289,1.567276
Bus43,250.143663,-0.521994,248.443652,3.659915,252.454319,1.567425
Bus44,251.149151,-0.525287,250.294502,3.660385,252.184588,1.568615
Bus45,250.919396,-0.524558,249.895509,3.660294,252.245479,1.568342
Bus46,250.483354,-0.522898,248.782443,3.660281,252.381307,1.567630
Bus47,250.484196,-0.522895,248.705853,3.660357,252.381535,1.567626
Bus48,249.732024,-0.520883,247.855407,3.659642,252.543809,1.567164
Bus49,250.143663,-0.521994,248.443652,3.659915,252.454319,1.567425
Bus50,251.149151,-0.525287,250.294502,3.660385,252.184588,1.568615
Bus51,250.919129,-0.524558,249.895510,3.660294,252.245482,1.568342
Bus52,250.483376,-0.522898,248.780412,3.660283,252.381313,1.567630
Bus53,249.706489,-0.520814,247.818903,3.659625,252.549363,1.567148
Bus54,249.732024,-0.520883,247.855407,3.659642,252.543809,1.567164
Bus55,250.143663,-0.521994,248.443652,3.659915,252.454319,1.567425
Bus56,251.149151,-0.525287,250.294502,3.660385,252.184588,1.568615
Bus57,250.918901,-0.524557,249.895510,3.660294,252.245484,1.568342
Bus58,250.483397,-0.522898,248.778477,3.660285,252.381319,1.567630
Bus59,249.590838,-0.520500,247.653550,3.659548,252.574522,1.567075
Bus60,249.732024,-0.520883,247.855407,3.659642,252.543809,1.567164
Bus61,250.143663,-0.521994,248.443652,3.659915,252.454319,1.567425
Bus62,251.149151,-0.525287,250.294502,3.660385,252.184588,1.568615
Bus63,250.917808,-0.524556,249.895514,3.660294,252.245496,1.568342
Bus64,250.483410,-0.522898,248.777319,3.660286,252.381322,1.567630
Bus65,249.567947,-0.520437,247.619872,3.659534,252.579433,1.567059
Bus66,249.577585,-0.520487,247.653592,3.659548,252.574666,1.567075
Bus67,249.732024,-0.520883,247.855407,3.659642,252.543809,1.567164
Bus68,250.143663,-0.521994,248.443652,3.659915,252.454319,1.567425
Bus69,251.149151,-0.525287,250.294502,3.660385,252.184588,1.568615
Bus70,250.913943,-0.524552,249.895526,3.660294,252.245538,1.568342
Bus71,250.483435,-0.522898,248.775046,3.660288,252.381329,1.567630
Bus72,249.297576,-0.519691,247.221983,3.659362,252.637454,1.566875
Bus73,249.576637,-0.520486,247.653594,3.659548,252.574676,1.567076
Bus74,249.572054,-0.520482,247.653609,3.659547,252.574726,1.567076
Bus75,249.732024,-0.520883,247.855407,3.659642,252.543809,1.567164
Bus76,250.143663,-0.521994,248.443652,3.659915,252.454319,1.567425
Bus77,251.149151,-0.525287,250.294502,3.660385,252.184588,1.568615
Bus78,250.483562,-0.522897,248.763527,3.660300,252.381363,1.567629
Bus79,249.203364,-0.519430,247.083291,3.659302,252.657681,1.566810
Bus80,249.732024,-0.520883,247.855407,3.659642,252.543809,1.567164
Bus81,250.143663,-0.521994,248.443652,3.659915,252.454319,1.567425
Bus82,251.149151,-0.525287,250.294502,3.660385,252.184588,1.568615
Bus83,250.484039,-0.522895,248.720121,3.660343,252.381493,1.567627
Bus84,249.182806,-0.519373,247.053024,3.659288,252.662095,1.566796
Bus85,249.732024,-0.520883,247.855407,3.659642,252.543809,1.567164
Bus86,250.143663,-0.521994,248.443652,3.659915,252.454319,1.567425
Bus87,251.149151,-0.525287,250.294502,3.660385,252.184588,1.568615
Bus88,249.141120,-0.519257,246.991647,3.659262,252.671047,1.566768
Bus89,249.732024,-0.520883,247.855407,3.659642,252.543809,1.567164
Bus90,250.143663,-0.521994,248.443652,3.659915,252.454319,1.567425
Bus91,251.149151,-0.525287,250.294502,3.660385,252.184588,1.568615
Bus92,249.101812,-0.519149,246.933766,3.659237,252.679489,1.566741
Bus93,250.143663,-0.521994,248.443652,3.659915,252.454319,1.567425
Bus94,251.149151,-0.525287,250.294502,3.660385,252.184588,1.568615
Bus95,249.078966,-0.519085,246.900124,3.659222,252.684396,1.566726
Bus96,250.143663,-0.521994,248.443652,3.659915,252.454319,1.567425
Bus97,251.149151,-0.525287,250.294502,3.660385,252.184588,1.568615
Bus98,249.063878,-0.519043,246.877905,3.659212,252.687637,1.566715
Bus99,250.143663,-0.521994,248.443652,3.659915,252.454319,1.567425
Bus100,251.149151,-0.525287,250.294502,3.660385,252.184588,1.568615
Bus101,249.043047,-0.518986,246.847228,3.659199,252.692111,1.566701
Bus102,250.143663,-0.521994,248.443652,3.659915,252.454319,1.567425
Bus103,251.149151,-0.525287,250.294502,3.660385,252.184588,1.568615
Bus104,249.043041,-0.518987,246.847277,3.659199,252.691559,1.566701
Bus105,249.029322,-0.518944,246.826650,3.659187,252.697863,1.566690
Bus106,250.143663,-0.521994,248.443652,3.659915,252.454319,1.567425
Bus107,249.043034,-0.518988,246.847337,3.659200,252.690891,1.566700
Bus108,249.021540,-0.518920,246.814981,3.659180,252.701125,1.566683
Bus109,250.143663,-0.521994,248.443652,3.659915,252.454319,1.567425
Bus110,249.043026,-0.518989,246.847406,3.659201,252.690117,1.566700
Bus111,248.714581,-0.517976,246.354568,3.658905,252.829829,1.566425
Bus112,250.143663,-0.521994,248.443652,3.659915,252.454319,1.567425
Bus113,249.043013,-0.518991,246.847512,3.659202,252.688936,1.566699
Bus114,248.683843,-0.517881,246.308446,3.658877,252.842724,1.566400
Bus115,250.143663,-0.521994,248.443652,3.659915,252.454319,1.567425
Bus116,249.042997,-0.518993,246.847647,3.659203,252.687418,1.566698
Bus117,248.683847,-0.517881,246.308449,3.658877,252.842505,1.566399
Bus118,248.589142,-0.517618,246.165242,3.658747,252.885439,1.566311
Bus119,250.143663,-0.521994,248.443652,3.659915,252.454319,1.567425
Bus120,249.042986,-0.518995,246.847744,3.659204,252.686328,1.566698
Bus121,248.683847,-0.517881,246.308449,3.658877,252.842505,1.566399
Bus122,248.683849,-0.517882,246.308450,3.658877,252.842398,1.566399
Bus123,248.418404,-0.517144,245.907004,3.658512,252.962476,1.566151
Bus124,250.143663,-0.521994,248.443652,3.659915,252.454319,1.567425
Bus125,249.042970,-0.518997,246.847882,3.659205,252.684789,1.566697
Bus126,248.683847,-0.517881,246.308449,3.658877,252.842505,1.566399
Bus127,248.683859,-0.517882,246.308457,3.658878,252.841898,1.566399
Bus128,248.341641,-0.516930,245.790879,3.658406,252.997122,1.566079
Bus129,250.143663,-0.521994,248.443652,3.659915,252.454319,1.567425
Bus130,249.042952,-0.519000,246.848031,3.659207,252.683123,1.566696
Bus131,248.683847,-0.517881,246.308449,3.658877,252.842505,1.566399
Bus132,248.682922,-0.517881,246.308460,3.658878,252.841909,1.566399
Bus133,248.684165,-0.517884,246.308445,3.658879,252.840394,1.566398
Bus134,248.318804,-0.516867,245.756329,3.658374,253.007431,1.566058
Bus135,250.143663,-0.521994,248.443652,3.659915,252.454319,1.567425
Bus136,249.042936,-0.519002,246.848171,3.659208,252.681552,1.566695
Bus137,248.683847,-0.517881,246.308449,3.658877,252.842505,1.566399
Bus138,248.682842,-0.517881,246.308460,3.658878,252.841909,1.566399
Bus139,248.684393,-0.517886,246.308437,3.658881,252.839275,1.566397
Bus140,248.293027,-0.516795,245.717329,3.658339,253.019067,1.566034
Bus141,250.143663,-0.521994,248.443652,3.659915,252.454319,1.567425
Bus142,249.042908,-0.519006,246.848402,3.659211,252.678969,1.566694
Bus143,248.683847,-0.517881,246.308449,3.658877,252.842505,1.566399
Bus144,248.682763,-0.517881,246.308460,3.658878,252.841910,1.566399
Bus145,248.684546,-0.517887,246.308431,3.658882,252.838525,1.566396
Bus146,248.268786,-0.516727,245.680650,3.658305,253.030010,1.566011
Bus147,250.143663,-0.521994,248.443652,3.659915,252.454319,1.567425
Bus148,249.042779,-0.519026,246.849498,3.659221,252.666687,1.566687
Bus149,248.683847,-0.517881,246.308449,3.658877,252.842505,1.566399
Bus150,248.682699,-0.517881,246.308460,3.658878,252.841911,1.566399
Bus151,248.684622,-0.517888,246.308669,3.658883,252.837752,1.566396
Bus152,248.684570,-0.517887,246.306214,3.658884,252.838532,1.566396
Bus153,248.240502,-0.516649,245.637854,3.658266,253.042780,1.565984
Bus154,250.143663,-0.521994,248.443652,3.659915,252.454319,1.567425
Bus155,249.042751,-0.519030,246.849737,3.659224,252.664012,1.566685
Bus156,248.683847,-0.517881,246.308449,3.658877,252.842505,1.566399
Bus157,248.682603,-0.517881,246.308461,3.658878,252.841912,1.566399
Bus158,248.684824,-0.517892,246.309299,3.658885,252.835701,1.566395
Bus159,248.684572,-0.517887,246.306079,3.658884,252.838532,1.566396
Bus160,248.232364,-0.516626,245.625540,3.658255,253.046454,1.565977
Bus161,250.143663,-0.521994,248.443652,3.659915,252.454319,1.567425
Bus162,249.042883,-0.519029,246.837793,3.659236,252.664047,1.566685
Bus163,249.042380,-0.519047,246.851490,3.659233,252.653807,1.566681
Bus164,248.683847,-0.517881,246.308449,3.658877,252.842505,1.566399
Bus165,248.682487,-0.517881,246.308461,3.658878,252.841913,1.566399
Bus166,248.684895,-0.517893,246.309519,3.658886,252.834988,1.566395
Bus167,248.684573,-0.517887,246.305956,3.658884,252.838533,1.566396
Bus168,248.186131,-0.516497,245.555581,3.658191,253.067329,1.565933
Bus169,250.143663,-0.521994,248.443652,3.659915,252.454319,1.567425
Bus170,249.042908,-0.519029,246.835537,3.659238,252.664054,1.566684
Bus171,249.041889,-0.519069,246.853816,3.659245,252.640258,1.566675
Bus172,248.683847,-0.517881,246.308449,3.658877,252.842505,1.566399
Bus173,248.682400,-0.517881,246.308461,3.658878,252.841914,1.566399
Bus174,248.684895,-0.517893,246.309519,3.658886,252.834988,1.566395
Bus175,248.684911,-0.517893,246.309581,3.658886,252.829222,1.566400
Bus176,248.684574,-0.517887,246.305905,3.658884,252.838533,1.566396
Bus177,248.160021,-0.516424,245.516068,3.658155,253.079120,1.565909
Bus178,249.042959,-0.519029,246.830881,3.659243,252.664068,1.566684
Bus179,249.041561,-0.519069,246.853450,3.659244,252.640440,1.566675
Bus180,249.041981,-0.519071,246.854166,3.659246,252.608266,1.566706
Bus181,248.683847,-0.517881,246.308449,3.658877,252.842505,1.566399
Bus182,248.682298,-0.517881,246.308462,3.658878,252.841915,1.566399
Bus183,248.684895,-0.517893,246.309519,3.658886,252.834988,1.566395
Bus184,248.684913,-0.517893,246.309588,3.658886,252.828600,1.566401
Bus185,248.684575,-0.517887,246.305794,3.658884,252.838533,1.566396
Bus186,248.140639,-0.516370,245.486737,3.658128,253.087872,1.565891
Bus187,249.040271,-0.519068,246.852011,3.659241,252.641157,1.566675
Bus188,249.042362,-0.519079,246.855611,3.659252,252.475862,1.566836
Bus189,248.683847,-0.517881,246.308449,3.658877,252.842505,1.566399
Bus190,248.682203,-0.517881,246.308462,3.658878,252.841916,1.566399
Bus191,248.684895,-0.517893,246.309519,3.658886,252.834988,1.566395
Bus192,248.684895,-0.517893,246.309519,3.658886,252.834988,1.566395
Bus193,248.684915,-0.517893,246.309595,3.658886,252.827997,1.566402
Bus194,248.684578,-0.517887,246.305513,3.658885,252.838534,1.566396
Bus195,248.123215,-0.516322,245.460367,3.658104,253.095741,1.565875
Bus196,249.037967,-0.519065,246.849440,3.659234,252.642435,1.566674
Bus197,249.042424,-0.519080,246.855847,3.659253,252.454226,1.566857
Bus198,249.042369,-0.519079,246.855638,3.659252,252.473411,1.566838
Bus199,248.683847,-0.517881,246.308449,3.658877,252.842505,1.566399
Bus200,248.682101,-0.517881,246.308462,3.658878,252.841917,1.566399
...
SourceBus_1,6664.439189,-0.001105,6663.580321,4.188238,6667.195874,2.093678
LOAD1,250.906765,-0.524545,249.895548,3.660294,252.245617,1.568343
LOAD2,250.484196,-0.522895,248.705853,3.660357,252.381535,1.567626
LOAD3,250.913943,-0.524552,249.895526,3.660294,252.245538,1.568342
LOAD4,249.576637,-0.520486,247.653594,3.659548,252.574676,1.567076
LOAD5,249.572054,-0.520482,247.653609,3.659547,252.574726,1.567076
LOAD6,250.484039,-0.522895,248.720121,3.660343,252.381493,1.567627
LOAD7,249.042959,-0.519029,246.830881,3.659243,252.664068,1.566684
LOAD8,249.042582,-0.519083,246.856445,3.659255,252.399524,1.566911
LOAD9,248.992763,-0.519020,246.849582,3.659232,252.642926,1.566675
LOAD10,249.039120,-0.519061,246.815330,3.659265,252.642794,1.566667
LOAD11,249.039223,-0.519061,246.806006,3.659274,252.642821,1.566667
LOAD12,249.042413,-0.519080,246.855806,3.659252,252.458033,1.566853
LOAD13,248.684615,-0.517887,246.302128,3.658888,252.838544,1.566396
LOAD14,248.680342,-0.517879,246.308468,3.658878,252.841936,1.566399
LOAD15,248.684611,-0.517887,246.302550,3.658887,252.838543,1.566396
LOAD16,248.684941,-0.517894,246.309694,3.658886,252.818899,1.566411
LOAD17,248.684946,-0.517894,246.309715,3.658887,252.817006,1.566412
LOAD18,247.219672,-0.513645,244.185511,3.656921,253.566192,1.565145
LOAD19,247.850196,-0.515557,245.045026,3.657727,253.202723,1.565632
LOAD20,246.503420,-0.513538,244.584491,3.656857,253.482487,1.565623
LOAD21,247.943231,-0.515839,245.204405,3.657869,253.172256,1.565717
LOAD22,246.821383,-0.513857,244.583452,3.656876,253.479058,1.565611
LOAD23,247.180685,-0.513182,243.124283,3.657753,253.635323,1.564810
LOAD24,247.764812,-0.515059,244.705289,3.657677,253.249772,1.565270
LOAD25,245.878890,-0.511926,243.943380,3.655219,253.926020,1.565999
LOAD26,247.956015,-0.514337,243.907956,3.658327,253.235132,1.564139
LOAD27,247.807499,-0.514925,244.560677,3.657809,253.182671,1.565083
LOAD28,247.807494,-0.514924,244.560656,3.657809,253.184627,1.565081
LOAD29,246.152640,-0.512174,243.909638,3.655279,253.909555,1.565951
LOAD30,245.730250,-0.511777,243.943873,3.655211,253.927621,1.566005
LOAD31,246.149683,-0.512171,243.909647,3.655278,253.909587,1.565951
LOAD32,247.977545,-0.514249,243.929291,3.658287,253.155817,1.564063
LOAD33,246.181480,-0.512191,243.879861,3.655352,253.858652,1.565933
LOAD34,246.423775,-0.512471,243.941175,3.655681,253.846683,1.565690
LOAD35,246.184167,-0.512178,243.851346,3.655378,253.886924,1.565892
LOAD36,246.178905,-0.512176,243.837779,3.655377,253.895431,1.565905
LOAD37,246.178802,-0.512177,243.847053,3.655367,253.895404,1.565906
LOAD38,247.997016,-0.514113,243.799154,3.658362,253.234554,1.563830
LOAD39,248.027569,-0.513954,243.690880,3.658416,253.236945,1.563622
LOAD40,248.056912,-0.513810,243.453001,3.658609,253.250857,1.563423
LOAD41,248.138374,-0.513461,243.253736,3.658782,253.260116,1.562938
LOAD42,248.027570,-0.513954,243.690882,3.658416,253.236767,1.563622
LOAD43,248.200334,-0.513252,243.080387,3.658963,253.241758,1.562639
LOAD44,247.968045,-0.514288,243.814940,3.658410,253.232795,1.564064
LOAD45,248.138327,-0.513461,243.257971,3.658778,253.260103,1.562938
LOAD46,247.972073,-0.514048,243.794998,3.658349,253.237077,1.563787
LOAD47,248.200353,-0.513253,243.080461,3.658963,253.234992,1.562646
LOAD48,247.969157,-0.514045,243.795007,3.658349,253.237109,1.563788
LOAD49,247.959196,-0.514035,243.795040,3.658348,253.237216,1.563788
LOAD50,248.325773,-0.512765,242.380257,3.659630,253.303778,1.561942
LOAD51,248.045196,-0.513632,243.456522,3.658573,253.257931,1.563248
LOAD52,248.261292,-0.512961,242.852760,3.659160,253.286802,1.562234
LOAD53,248.325773,-0.512765,242.493486,3.659510,253.303778,1.561942
LOAD54,248.038205,-0.513625,243.456545,3.658573,253.258006,1.563248
LOAD55,248.260928,-0.512960,242.852787,3.659159,253.286891,1.562234
